*Heading
** Job name: Bague Model name: Bague_de_serrage
** Generated by: Abaqus/CAE 6.9-2
*Preprint, echo=NO, model=NO, history=NO, contact=NO
**
** PARTS
**
*Part, name=Bague
*Node
      1,         24.5,          7.5
      2,          20.,          7.5
      3,          20.,           0.
      4,         24.5,           0.
      5,         24.5,          15.
      6,          20.,          15.
      7,        22.25,          7.5
      8,          20.,        5.625
      9,          20.,         3.75
     10,          20.,        1.875
     11,        22.25,           0.
     12,         24.5,        1.875
     13,         24.5,         3.75
     14,         24.5,        5.625
     15,         24.5,        9.375
     16,         24.5,        11.25
     17,         24.5,       13.125
     18,        22.25,          15.
     19,          20.,       13.125
     20,          20.,        11.25
** ... 7 like lines cut
*Element, type=CAX4
1, 13, 14, 22, 23
2,  7,  2,  8, 22
3,  9, 23, 22,  8
4, 23, 24, 12, 13
5, 11, 24, 10,  3
6,  4, 12, 24, 11
7,  7, 22, 14,  1
8, 23,  9, 10, 24
 9, 20, 21, 25, 26
10,  7,  1, 15, 25
11, 16, 26, 25, 15
12, 26, 27, 19, 20
13, 18, 27, 17,  5
14,  6, 19, 27, 18
15,  7, 25, 21,  2
16, 26, 16, 17, 27
*Nset, nset=_PickedSet2, internal, generate
  1,  27,   1
*Elset, elset=_PickedSet2, internal, generate
  1,  16,   1
** Section: Section-duralumin
*Solid Section, elset=_PickedSet2, material=Duralumin
,
*End Part
**  
*Part, name=Tube_ext
*Node
      1,   20.2999992,          -5.
      2,   17.0499992,          -5.
      3,   20.2999992,          35.
      4,   17.0499992,          35.
      5,   18.6749992,          -5.
      6,   20.2999992,          33.
      7,   20.2999992,          31.
      8,   20.2999992,          29.
      9,   20.2999992,          27.
     10,   20.2999992,          25.
     11,   20.2999992,          23.
     12,   20.2999992,          21.
     13,   20.2999992,          19.
     14,   20.2999992,          17.
     15,   20.2999992,          15.
     16,   20.2999992,          13.
     17,   20.2999992,          11.
     18,   20.2999992,           9.
     19,   20.2999992,           7.
     20,   20.2999992,           5.
** ... 43 like lines cut
*Element, type=CAX4
 1,  5, 63, 26,  2
 2, 15, 14, 46, 55
 3, 26, 63, 45, 27
 4, 25, 47,  6,  3
 5, 47, 44, 43, 48
 6,  7,  6, 47, 48
 7,  8,  7, 48, 49
 8,  9,  8, 49, 50
 9, 10,  9, 50, 51
10, 11, 10, 51, 52
11, 12, 11, 52, 53
12, 13, 12, 53, 54
13, 14, 13, 54, 46
14, 16, 15, 55, 56
15, 17, 16, 56, 57
16, 18, 17, 57, 58
17, 19, 18, 58, 59
18, 20, 19, 59, 60
19, 21, 20, 60, 61
20, 61, 62, 22, 21
** ... 20 like lines cut
*Nset, nset=_PickedSet2, internal, generate
  1,  63,   1
*Elset, elset=_PickedSet2, internal, generate
  1,  40,   1
** Section: Section-acier
*Solid Section, elset=_PickedSet2, material=Acier
,
*End Part
**  
*Part, name=Tube_int
*Node
      1,          17.,          20.
      2,          13.,          20.
      3,          13.,         -20.
      4,          17.,         -20.
      5,          15.,          20.
      6,          13.,          18.
      7,          13.,          16.
      8,          13.,          14.
      9,          13.,          12.
     10,          13.,          10.
     11,          13.,           8.
     12,          13.,           6.
     13,          13.,           4.
     14,          13.,           2.
     15,          13.,           0.
     16,          13.,          -2.
     17,          13.,          -4.
     18,          13.,          -6.
     19,          13.,          -8.
     20,          13.,         -10.
** ... 43 like lines cut
*Element, type=CAX4
 1,  5, 45, 44,  1
 2, 62,  7,  8, 46
 3,  5,  2,  6, 45
 4, 42, 43, 62, 46
 5,  9, 47, 46,  8
 6, 39, 40, 61, 48
 7, 12, 49, 48, 11
 8, 36, 37, 60, 50
 9, 15, 51, 50, 14
10, 33, 34, 59, 52
11, 18, 53, 52, 17
12, 19, 54, 53, 18
13, 54, 55, 30, 31
14, 20, 55, 54, 19
15, 55, 56, 29, 30
16, 21, 56, 55, 20
17, 56, 57, 28, 29
18, 22, 57, 56, 21
19, 57, 58, 27, 28
20, 23, 58, 57, 22
** ... 20 like lines cut
*Nset, nset=_PickedSet2, internal, generate
  1,  63,   1
*Elset, elset=_PickedSet2, internal, generate
  1,  40,   1
** Section: Section-acier
*Solid Section, elset=_PickedSet2, material=Acier
,
*End Part
**  
**
** ASSEMBLY
**
*Assembly, name=Assembly
**  
*Instance, name=Bague-1, part=Bague
          0.,          40.,           0.
*End Instance
**  
*Instance, name=Tube_1-1, part=Tube_int
*End Instance
**  
*Instance, name=Tube_2-1, part=Tube_ext
*End Instance
**  
*Nset, nset=_PickedSet14, internal, instance=Tube_1-1
  3,  4, 25
*Elset, elset=_PickedSet14, internal, instance=Tube_1-1
 22, 23
*Nset, nset=_PickedSet16, internal, instance=Bague-1
 1, 2, 7
*Elset, elset=_PickedSet16, internal, instance=Bague-1
  2,  7, 10, 15
*Nset, nset=_PickedSet17, internal, instance=Tube_2-1
  3,  4, 25
*Elset, elset=_PickedSet17, internal, instance=Tube_2-1
  4, 22
*Elset, elset=__PickedSurf8_S1, internal, instance=Tube_2-1
  2,  6,  7,  8,  9, 10, 11, 12, 13, 14, 15, 16, 17, 18, 19
*Elset, elset=__PickedSurf8_S3, internal, instance=Tube_2-1
  4, 20, 21, 39, 40
*Surface, type=ELEMENT, name=_PickedSurf8, internal
__PickedSurf8_S1, S1
__PickedSurf8_S3, S3
*Elset, elset=__PickedSurf9_S2, internal, instance=Bague-1
 2, 8
*Elset, elset=__PickedSurf9_S4, internal, instance=Bague-1
 3,
*Elset, elset=__PickedSurf9_S3, internal, instance=Bague-1
  5, 12, 15
*Elset, elset=__PickedSurf9_S1, internal, instance=Bague-1
  9, 14
*Surface, type=ELEMENT, name=_PickedSurf9, internal
__PickedSurf9_S2, S2
__PickedSurf9_S4, S4
__PickedSurf9_S3, S3
__PickedSurf9_S1, S1
*Elset, elset=__PickedSurf10_S3, internal, instance=Tube_2-1
 1,
*Elset, elset=__PickedSurf10_S4, internal, instance=Tube_2-1
 3,
*Elset, elset=__PickedSurf10_S2, internal, instance=Tube_2-1
  5, 22, 23, 24, 25, 26, 27, 28, 29, 30, 31, 32, 33, 34, 35, 36
 37, 38
*Surface, type=ELEMENT, name=_PickedSurf10, internal
__PickedSurf10_S3, S3
__PickedSurf10_S4, S4
__PickedSurf10_S2, S2
*Elset, elset=__PickedSurf11_S3, internal, instance=Tube_1-1
  1, 13, 15, 17, 19, 24, 25, 26, 27, 29, 30, 32, 33, 35
*Elset, elset=__PickedSurf11_S1, internal, instance=Tube_1-1
  4,  6,  8, 10, 23, 40
*Surface, type=ELEMENT, name=_PickedSurf11, internal
__PickedSurf11_S3, S3
__PickedSurf11_S1, S1
*Elset, elset=__PickedSurf15_S2, internal, instance=Bague-1
 2, 8
*Elset, elset=__PickedSurf15_S4, internal, instance=Bague-1
 3,
*Elset, elset=__PickedSurf15_S3, internal, instance=Bague-1
  5, 12, 15
*Elset, elset=__PickedSurf15_S1, internal, instance=Bague-1
  9, 14
*Surface, type=ELEMENT, name=_PickedSurf15, internal
__PickedSurf15_S2, S2
__PickedSurf15_S4, S4
__PickedSurf15_S3, S3
__PickedSurf15_S1, S1
*End Assembly
** 
** MATERIALS
** 
*Material, name=Acier
*Elastic
210000., 0.3
*Material, name=Duralumin
*Elastic
75000., 0.3
** 
** INTERACTION PROPERTIES
** 
*Surface Interaction, name=Propriete_de_base
1.,
*Friction
0.,
*Surface Behavior, pressure-overclosure=HARD
** 
** BOUNDARY CONDITIONS
** 
** Name: Blocage_Y_tube2 Type: Displacement/Rotation
*Boundary
_PickedSet14, 2, 2
** Name: Blocage_en_Y Type: Displacement/Rotation
*Boundary
_PickedSet16, 2, 2
** Name: blocage_Y_tube1 Type: Displacement/Rotation
*Boundary
_PickedSet17, 2, 2
** 
** INTERACTIONS
** 
** Interaction: Interaction_tubes
*Contact Pair, interaction=Propriete_de_base, type=SURFACE TO SURFACE
_PickedSurf11, _PickedSurf10
** Interaction: interaction_bague_tube1
*Contact Pair, interaction=Propriete_de_base
_PickedSurf9, _PickedSurf8
** ----------------------------------------------------------------
** 
** STEP: Ouverture
** 
*Step, name=Ouverture, inc=20
ouverture de la bague
*Static
0.25, 1., 1e-05, 0.25
** 
** LOADS
** 
** Name: Pression_ouverture   Type: Pressure
*Dsload
_PickedSurf15, P, 220.
** 
** OUTPUT REQUESTS
** 
*Restart, write, frequency=0
** 
** FIELD OUTPUT: F-Output-1
** 
*Output, field, variable=PRESELECT
** 
** HISTORY OUTPUT: H-Output-1
** 
*Output, history, variable=PRESELECT
*End Step
** ----------------------------------------------------------------
** 
** STEP: D
** 
*Step, name=D
*Static
1., 1., 1e-05, 1.
** 
** BOUNDARY CONDITIONS
** 
** Name: Blocage_en_Y Type: Displacement/Rotation
*Boundary
_PickedSet16, 2, 2, -40.
** 
** OUTPUT REQUESTS
** 
*Restart, write, frequency=0
** 
** FIELD OUTPUT: F-Output-1
** 
*Output, field, variable=PRESELECT
** 
** HISTORY OUTPUT: H-Output-1
** 
*Output, history, variable=PRESELECT
*End Step
** ----------------------------------------------------------------
** 
** STEP: Fermeture
** 
*Step, name=Fermeture
*Static
0.1, 1., 1e-05, 0.1
** 
** LOADS
** 
** Name: Pression_ouverture   Type: Pressure
*Dsload, op=NEW
** 
** OUTPUT REQUESTS
** 
*Restart, write, frequency=0
** 
** FIELD OUTPUT: F-Output-1
** 
*Output, field, variable=PRESELECT
** 
** HISTORY OUTPUT: H-Output-1
** 
*Output, history, variable=PRESELECT
*End Step
